CPDS_validation_cosim/Distribution/Bus11/IEEE8500/IEEE8500_VLN_Node.Txt

LINE-GROUND and LINE-LINE VOLTAGES BY BUS & NODE

Bus                  Node    VLN (kV)   Angle      pu     Base kV    Node-Node   VLL (kV)  Angle      pu

SOURCEBUS .......... 1       69.715 /_    0.0      1.05   115.000        1-2     120.75 /_   30.0      1.05
   -                 2       69.715 /_ -120.0      1.05   115.000        2-3     120.75 /_  -90.0      1.05
   -                 3       69.715 /_  120.0      1.05   115.000        3-1     120.75 /_  150.0      1.05
_HVMV_SUB_LSB ...... 1       7.5081 /_  -33.7    1.0429    12.470        1-2     12.999 /_   -3.7    1.0424
   -                 2       7.5036 /_ -153.7    1.0422    12.470        2-3     13.018 /_ -123.8     1.044
   -                 3       7.5109 /_   86.1    1.0432    12.470        3-1     12.993 /_  116.2    1.0419
HVMV_SUB_48332 ..... 1       7.5081 /_  -33.7    1.0429    12.470        1-2     12.999 /_   -3.7    1.0424
   -                 2       7.5036 /_ -153.7    1.0422    12.470        2-3     13.018 /_ -123.8     1.044
   -                 3       7.5109 /_   86.1    1.0432    12.470        3-1     12.993 /_  116.2    1.0419
M1009763 ........... 1       6.4391 /_  -42.7   0.89438    12.470        1-2     11.395 /_  -12.9   0.91377
   -                 2       6.6262 /_ -164.1   0.92036    12.470        2-3     11.706 /_ -131.4   0.93874
   -                 3        7.093 /_   78.8   0.98519    12.470        3-1     11.811 /_  106.5   0.94713
L2673322 ........... 2       6.6261 /_ -164.1   0.92034    12.470
M1069148 ........... 3       7.0738 /_   80.3   0.98253    12.470
L2673309 ........... 3       7.0735 /_   80.3   0.98249    12.470
M1069588 ........... 2       6.8635 /_ -162.5   0.95332    12.470
L2804270 ........... 2       6.8635 /_ -162.5   0.95332    12.470
M3036164 ........... 2       6.5173 /_ -163.9   0.90523    12.470
L2935553 ........... 2        6.516 /_ -163.9   0.90506    12.470
M1209749 ........... 2       7.3658 /_ -155.4    1.0231    12.470
L2748840 ........... 2       7.3655 /_ -155.4    1.0231    12.470
M1108264 ........... 2       6.9574 /_ -158.5   0.96637    12.470
M1108263 ........... 2        6.957 /_ -158.5   0.96631    12.470
L3085398 ........... 1       6.4796 /_  -42.7       0.9    12.470        1-2     11.461 /_  -12.9   0.91907
   -                 2        6.666 /_ -164.0   0.92589    12.470        2-3     11.756 /_ -131.5   0.94271
   -                 3        7.105 /_   78.8   0.98686    12.470        3-1     11.855 /_  106.6   0.95068
M1026891 ........... 1       6.4767 /_  -42.7    0.8996    12.470        1-2     11.454 /_  -12.9   0.91854
   -                 2       6.6603 /_ -164.0    0.9251    12.470        2-3     11.749 /_ -131.5    0.9422
   -                 3       7.1037 /_   78.8   0.98669    12.470        3-1     11.851 /_  106.6   0.95036
L3216367 ........... 1       6.5399 /_  -42.2   0.90838    12.470        1-2     11.492 /_  -12.6   0.92155
   -                 2       6.6379 /_ -163.6   0.92198    12.470        2-3     11.725 /_ -131.5   0.94026
   -                 3       7.0477 /_   78.5   0.97891    12.470        3-1     11.813 /_  107.0   0.94732
M1069468 ........... 1       6.5394 /_  -42.2    0.9083    12.470        1-2      11.49 /_  -12.6   0.92141
   -                 2       6.6359 /_ -163.6   0.92171    12.470        2-3     11.723 /_ -131.5   0.94008
   -                 3       7.0469 /_   78.5    0.9788    12.470        3-1     11.811 /_  107.0   0.94718
M1142800 ........... 2       7.2122 /_ -157.4    1.0018    12.470
M1142799 ........... 2        7.212 /_ -157.4    1.0017    12.470
M1047592 ........... 1       6.5818 /_  -42.3    0.9142    12.470        1-2     11.607 /_  -12.5   0.93079
   -                 2       6.7397 /_ -163.5   0.93613    12.470        2-3     11.873 /_ -131.3   0.95215
   -                 3       7.1413 /_   78.9    0.9919    12.470        3-1      11.96 /_  107.0   0.95908
P827512 ............ 3       7.1413 /_   78.9    0.9919    12.470
M1047339 ........... 1       6.9009 /_  -39.4   0.95851    12.470        1-2     11.863 /_   -9.8   0.95136
   -                 2       6.7816 /_ -159.6   0.94194    12.470        2-3     12.035 /_ -129.3   0.96512
   -                 3       7.0709 /_   79.7   0.98212    12.470        3-1     12.047 /_  109.7   0.96611
P895104 ............ 1       6.9008 /_  -39.4   0.95851    12.470
M1026915 ........... 1       6.4782 /_  -42.7   0.89981    12.470        1-2     11.461 /_  -12.9   0.91909
   -                 2        6.668 /_ -164.0   0.92617    12.470        2-3     11.757 /_ -131.5    0.9428
   -                 3       7.1041 /_   78.8   0.98673    12.470        3-1     11.853 /_  106.6   0.95054
M1026920 ........... 1       6.4765 /_  -42.7   0.89957    12.470        1-2     11.459 /_  -12.9    0.9189
   -                 2       6.6671 /_ -164.0   0.92604    12.470        2-3     11.755 /_ -131.5   0.94266
   -                 3       7.1031 /_   78.8    0.9866    12.470        3-1     11.851 /_  106.6   0.95035
N1138596 ........... 1       6.5242 /_  -42.1   0.90619    12.470
L3254207 ........... 1       6.5237 /_  -42.1   0.90613    12.470
M1069464 ........... 1       6.5385 /_  -42.2   0.90818    12.470        1-2     11.487 /_  -12.7   0.92118
   -                 2       6.6324 /_ -163.6   0.92123    12.470        2-3     11.719 /_ -131.5   0.93975
   -                 3       7.0455 /_   78.5    0.9786    12.470        3-1     11.808 /_  107.0   0.94694
P873787 ............ 2       6.6324 /_ -163.6   0.92123    12.470
N1144665 ........... 1       6.6033 /_  -42.1   0.91719    12.470        1-2     11.634 /_  -12.3   0.93298
   -                 2        6.752 /_ -163.3   0.93784    12.470        2-3     11.889 /_ -131.2    0.9534
   -                 3       7.1362 /_   79.0    0.9912    12.470        3-1     11.967 /_  107.2   0.95967
M1047515 ........... 1       6.5987 /_  -42.1   0.91654    12.470        1-2     11.627 /_  -12.3   0.93239
   -                 2       6.7485 /_ -163.3   0.93735    12.470        2-3     11.882 /_ -131.2   0.95286
   -                 3       7.1317 /_   79.0   0.99057    12.470        3-1     11.959 /_  107.2   0.95904
N1137002 ........... 1        6.573 /_  -42.1   0.91297    12.470
M1047707 ........... 1       6.5727 /_  -42.1   0.91293    12.470
L2729406 ........... 3       7.1514 /_   81.1   0.99331    12.470
L2897768 ........... 3       7.1509 /_   81.1   0.99324    12.470
L3649301 ........... 1       6.5542 /_  -42.4   0.91037    12.470
L3649302 ........... 1       6.5539 /_  -42.4   0.91032    12.470
L2970842 ........... 2       6.9792 /_ -158.5   0.96939    12.470
M1089113 ........... 2       6.9778 /_ -158.5    0.9692    12.470
M1047312 ........... 1       6.8698 /_  -39.4   0.95419    12.470        1-2     11.812 /_   -9.8   0.94725
   -                 2       6.7502 /_ -159.7   0.93758    12.470        2-3     11.995 /_ -129.2   0.96192
   -                 3       7.0607 /_   79.7   0.98072    12.470        3-1     12.013 /_  109.7   0.96335
P893163 ............ 1       6.8697 /_  -39.4   0.95418    12.470
L2822871 ........... 1        6.507 /_  -42.6    0.9038    12.470        1-2     11.507 /_  -12.7   0.92278
   -                 2       6.6999 /_ -163.8    0.9306    12.470        2-3       11.8 /_ -131.4   0.94631
   -                 3       7.1156 /_   78.9   0.98834    12.470        3-1     11.889 /_  106.7   0.95339
M1026872 ........... 1       6.5047 /_  -42.6   0.90349    12.470        1-2     11.503 /_  -12.8   0.92249
   -                 2       6.6974 /_ -163.8   0.93025    12.470        2-3     11.797 /_ -131.4   0.94602
   -                 3       7.1146 /_   78.9    0.9882    12.470        3-1     11.886 /_  106.7   0.95316
M1026312 ........... 2       6.6171 /_ -160.0    0.9191    12.470
L2973163 ........... 2       6.6147 /_ -160.0   0.91877    12.470
L3728038 ........... 1        6.544 /_  -42.2   0.90895    12.470
L3728039 ........... 1       6.5436 /_  -42.2   0.90888    12.470
M1069567 ........... 2       6.8755 /_ -162.5   0.95499    12.470
M1069582 ........... 2       6.8671 /_ -162.5   0.95382    12.470
N1140830 ........... 1       6.4276 /_  -42.4   0.89277    12.470
L3216351 ........... 1       6.4275 /_  -42.4   0.89276    12.470
L2952007 ........... 3       7.3156 /_   84.8    1.0161    12.470
L2861158 ........... 3       7.3153 /_   84.8    1.0161    12.470
N1140827 ........... 1       6.4321 /_  -42.4    0.8934    12.470        1-2     11.428 /_  -12.1   0.91642
   -                 2       6.7098 /_ -163.2   0.93197    12.470        2-3     11.742 /_ -131.3   0.94161
   -                 3       7.0068 /_   79.0   0.97322    12.470        3-1     11.727 /_  106.9    0.9404
M1026726 ........... 1        6.432 /_  -42.4   0.89339    12.470        1-2     11.428 /_  -12.1   0.91641
   -                 2       6.7097 /_ -163.2   0.93196    12.470        2-3     11.742 /_ -131.3   0.94159
   -                 3       7.0067 /_   79.0   0.97321    12.470        3-1     11.727 /_  106.9   0.94039
L2730106 ........... 1       7.0368 /_  -39.1   0.97739    12.470        1-2     12.258 /_   -9.3   0.98297
   -                 2       7.0739 /_ -159.7   0.98254    12.470        2-3     12.414 /_ -128.8   0.99553
   -                 3        7.317 /_   81.1    1.0163    12.470        3-1     12.442 /_  110.3   0.99775
N1142099 ........... 1        7.035 /_  -39.1   0.97715    12.470        1-2     12.255 /_   -9.3   0.98279
   -                 2       7.0727 /_ -159.7   0.98238    12.470        2-3     12.412 /_ -128.8   0.99538
   -                 3       7.3167 /_   81.0    1.0163    12.470        3-1     12.441 /_  110.3   0.99763
M1026658 ........... 1       6.4262 /_  -42.5   0.89259    12.470        1-2      11.42 /_  -12.1   0.91583
   -                 2       6.7113 /_ -163.2   0.93218    12.470        2-3     11.734 /_ -131.4   0.94098
   -                 3       6.9931 /_   79.0   0.97132    12.470        3-1     11.711 /_  106.9   0.93911
L3172805 ........... 1       6.4261 /_  -42.5   0.89256    12.470
P895112 ............ 1       7.2389 /_  -37.4    1.0055    12.470
L3048962 ........... 1       7.2388 /_  -37.4    1.0055    12.470
L2991914 ........... 1       6.5575 /_  -42.2   0.91082    12.470        1-2     11.567 /_  -12.3   0.92757
   -                 2       6.7244 /_ -163.3     0.934    12.470        2-3      11.83 /_ -131.2   0.94867
   -                 3        7.094 /_   79.0   0.98534    12.470        3-1     11.893 /_  107.1   0.95375
M1047503 ........... 1       6.5543 /_  -42.2   0.91038    12.470        1-2     11.563 /_  -12.3   0.92729
   -                 2       6.7241 /_ -163.3   0.93396    12.470        2-3     11.828 /_ -131.2   0.94849
   -                 3       7.0918 /_   79.0   0.98503    12.470        3-1     11.889 /_  107.1   0.95341
M1047751 ........... 1        6.534 /_  -41.9   0.90756    12.470
L2973154 ........... 1        6.534 /_  -41.9   0.90756    12.470
L3010565 ........... 3       7.0708 /_   80.3   0.98211    12.470
L2897775 ........... 3       7.0705 /_   80.3   0.98207    12.470
M1125955 ........... 3       7.3364 /_   81.8     1.019    12.470
M1125957 ........... 3       7.3364 /_   81.8     1.019    12.470
M1069640 ........... 2       6.8416 /_ -162.5   0.95029    12.470
L2804269 ........... 2        6.841 /_ -162.5   0.95019    12.470
M1026702 ........... 1       6.4525 /_  -42.4   0.89624    12.470        1-2     11.452 /_  -12.2   0.91835
   -                 2       6.7135 /_ -163.2   0.93248    12.470        2-3      11.76 /_ -131.3   0.94305
   -                 3       7.0248 /_   79.0   0.97573    12.470        3-1     11.758 /_  107.0   0.94288
N1139551 ........... 1       6.4428 /_  -42.4   0.89489    12.470        1-2     11.441 /_  -12.2   0.91752
   -                 2       6.7128 /_ -163.2   0.93239    12.470        2-3     11.754 /_ -131.3   0.94257
   -                 3       7.0186 /_   79.0   0.97486    12.470        3-1     11.745 /_  106.9   0.94189
N1136355 ........... 2       6.9134 /_ -162.4   0.96026    12.470
L2783231 ........... 2       6.9066 /_ -162.4   0.95931    12.470
L2748143 ........... 1       6.8365 /_  -40.9   0.94958    12.470
L3251854 ........... 1       6.8364 /_  -40.9   0.94956    12.470
M1069610 ........... 2       6.8519 /_ -162.5   0.95171    12.470
M1069600 ........... 2       6.8518 /_ -162.5   0.95169    12.470
M1069424 ........... 1       6.5317 /_  -42.2   0.90724    12.470        1-2     11.465 /_  -12.8   0.91937
   -                 2        6.606 /_ -163.7   0.91755    12.470        2-3     11.687 /_ -131.6   0.93724
   -                 3       7.0346 /_   78.4   0.97709    12.470        3-1     11.786 /_  106.9   0.94512
L2935549 ........... 1       6.5308 /_  -42.2   0.90711    12.470        1-2     11.462 /_  -12.8   0.91913
   -                 2       6.6023 /_ -163.7   0.91705    12.470        2-3     11.683 /_ -131.6    0.9369
   -                 3       7.0333 /_   78.4   0.97691    12.470        3-1     11.783 /_  106.9   0.94488
P895089 ............ 3       7.2983 /_   80.0    1.0137    12.470
L3235242 ........... 3       7.2981 /_   80.0    1.0137    12.470
M1026795 ........... 1       6.5237 /_  -42.2   0.90613    12.470        1-2      11.53 /_  -12.3   0.92458
   -                 2       6.7213 /_ -163.3   0.93357    12.470        2-3     11.807 /_ -131.3   0.94682
   -                 3       7.0704 /_   79.0   0.98206    12.470        3-1     11.849 /_  107.1   0.95018
N1140522 ........... 3       7.0704 /_   79.0   0.98206    12.470
L3030199 ........... 1       7.2728 /_  -37.4    1.0102    12.470        1-2     12.544 /_   -7.5    1.0059
   -                 2       7.2141 /_ -157.4     1.002    12.470        2-3     12.641 /_ -127.4    1.0137
   -                 3        7.333 /_   81.9    1.0185    12.470        3-1     12.608 /_  112.1     1.011
M1125934 ........... 1        7.273 /_  -37.4    1.0102    12.470        1-2     12.543 /_   -7.5    1.0059
   -                 2       7.2133 /_ -157.4    1.0019    12.470        2-3     12.641 /_ -127.5    1.0137
   -                 3       7.3322 /_   81.9    1.0184    12.470        3-1     12.606 /_  112.1    1.0109
M1069189 ........... 1       7.0447 /_  -38.8    0.9785    12.470        1-2     12.102 /_   -9.0   0.97046
   -                 2       6.9348 /_ -158.7   0.96323    12.470        2-3     12.207 /_ -128.9   0.97894
   -                 3       7.0887 /_   80.3    0.9846    12.470        3-1     12.181 /_  110.6   0.97685
L2860487 ........... 3       7.0885 /_   80.3   0.98458    12.470
221-312488 ......... 1        7.055 /_  -38.7   0.97992    12.470        1-2     12.271 /_   -9.0   0.98406
   -                 2       7.0733 /_ -159.3   0.98247    12.470        2-3     12.422 /_ -128.4   0.99612
   -                 3       7.3143 /_   81.3    1.0159    12.470        3-1     12.447 /_  110.7   0.99817
M1089183 ........... 1        7.055 /_  -38.7   0.97992    12.470        1-2     12.271 /_   -9.0   0.98406
   -                 2       7.0733 /_ -159.3   0.98246    12.470        2-3     12.422 /_ -128.4   0.99612
   -                 3       7.3143 /_   81.3    1.0159    12.470        3-1     12.447 /_  110.7   0.99817
M1108464 ........... 2       7.0713 /_ -159.3   0.98219    12.470
L3102286 ........... 2       7.0709 /_ -159.3   0.98212    12.470
F739845 ............ 1       6.8543 /_  -39.4   0.95204    12.470        1-2     11.781 /_   -9.9   0.94478
   -                 2       6.7269 /_ -159.7   0.93435    12.470        2-3     11.968 /_ -129.2   0.95971
   -                 3       7.0547 /_   79.7   0.97987    12.470        3-1     11.994 /_  109.7   0.96181
293471 ............. 1       6.8542 /_  -39.4   0.95204    12.470        1-2     11.781 /_   -9.9   0.94477
   -                 2       6.7268 /_ -159.7   0.93434    12.470        2-3     11.967 /_ -129.2    0.9597
   -                 3       7.0546 /_   79.7   0.97986    12.470        3-1     11.994 /_  109.7    0.9618
P827499 ............ 1       6.5298 /_  -42.2   0.90697    12.470
N1139254 ........... 1       6.5298 /_  -42.2   0.90697    12.470
M1026657 ........... 1       6.4228 /_  -42.4   0.89212    12.470
M1026656 ........... 1       6.4226 /_  -42.4   0.89209    12.470
M1108299 ........... 2       7.1862 /_ -157.6   0.99815    12.470
M1108300 ........... 2       7.1862 /_ -157.6   0.99814    12.470
L3198355 ........... 2       7.1858 /_ -157.6   0.99809    12.470
L2805037 ........... 2       7.1858 /_ -157.6   0.99809    12.470
N1137994 ........... 3       7.0531 /_   78.6   0.97965    12.470
M1069484 ........... 3       7.0516 /_   78.6   0.97945    12.470
L2860504 ........... 1       6.4284 /_  -42.4   0.89289    12.470
L2860493 ........... 1       6.4278 /_  -42.4   0.89281    12.470
M1026783 ........... 1       6.5143 /_  -42.3   0.90482    12.470        1-2     11.519 /_  -12.3   0.92376
   -                 2       6.7204 /_ -163.3   0.93344    12.470        2-3     11.801 /_ -131.3   0.94634
   -                 3       7.0646 /_   79.0   0.98126    12.470        3-1     11.837 /_  107.1   0.94924
M1026780 ........... 1       6.5128 /_  -42.3   0.90461    12.470        1-2     11.518 /_  -12.3   0.92363
   -                 2       6.7202 /_ -163.3   0.93342    12.470        2-3       11.8 /_ -131.3   0.94627
   -                 3       7.0637 /_   79.0   0.98113    12.470        3-1     11.835 /_  107.1   0.94908
P895111 ............ 3        7.348 /_   82.1    1.0206    12.470
L2895496 ........... 3       7.3477 /_   82.1    1.0206    12.470
N1140819 ........... 1       6.4358 /_  -42.4   0.89392    12.470        1-2     11.433 /_  -12.1    0.9168
   -                 2       6.7108 /_ -163.2   0.93211    12.470        2-3     11.746 /_ -131.3   0.94194
   -                 3       7.0111 /_   79.0   0.97382    12.470        3-1     11.733 /_  106.9   0.94093
M1026700 ........... 1       6.4348 /_  -42.4   0.89378    12.470        1-2     11.431 /_  -12.1    0.9167
   -                 2       6.7104 /_ -163.2   0.93206    12.470        2-3     11.745 /_ -131.3   0.94184
   -                 3       7.0099 /_   79.0   0.97365    12.470        3-1     11.732 /_  106.9   0.94078
M1089173 ........... 3       7.1541 /_   81.1   0.99369    12.470
L2935551 ........... 3       7.1532 /_   81.1   0.99356    12.470
M1026344 ........... 1       6.8124 /_  -39.4   0.94623    12.470
M1026364 ........... 1       6.8122 /_  -39.4   0.94619    12.470
L2879070 ........... 1       6.5714 /_  -42.3   0.91275    12.470        1-2     11.594 /_  -12.5   0.92973
   -                 2       6.7358 /_ -163.5   0.93559    12.470        2-3     11.865 /_ -131.3   0.95145
   -                 3       7.1374 /_   78.9   0.99137    12.470        3-1      11.95 /_  107.0   0.95832
L3216345 ........... 1       6.5643 /_  -42.4   0.91177    12.470        1-2     11.585 /_  -12.6   0.92903
   -                 2       6.7334 /_ -163.6   0.93525    12.470        2-3     11.859 /_ -131.3   0.95101
   -                 3       7.1353 /_   78.9   0.99107    12.470        3-1     11.944 /_  106.9   0.95784
M1069428 ........... 1       6.5327 /_  -42.2   0.90737    12.470        1-2     11.467 /_  -12.7   0.91959
   -                 2        6.609 /_ -163.7   0.91797    12.470        2-3     11.691 /_ -131.6   0.93753
   -                 3       7.0358 /_   78.4   0.97725    12.470        3-1     11.788 /_  106.9   0.94533
N1139257 ........... 2        6.609 /_ -163.7   0.91797    12.470
L2991919 ........... 1       6.8087 /_  -39.4   0.94572    12.470
M1026361 ........... 1       6.8064 /_  -39.4   0.94539    12.470
N1147857 ........... 1       6.4391 /_  -42.7   0.89437    12.470
M1009742 ........... 1       6.4376 /_  -42.7   0.89416    12.470
Q14412 ............. 1       6.8925 /_  -39.4   0.95734    12.470        1-2      11.85 /_   -9.8   0.95026
   -                 2       6.7733 /_ -159.7   0.94079    12.470        2-3     12.025 /_ -129.3   0.96428
   -                 3       7.0683 /_   79.7   0.98177    12.470        3-1     12.038 /_  109.7   0.96538
M1047325 ........... 1       6.8901 /_  -39.4   0.95701    12.470        1-2     11.846 /_   -9.8   0.94995
   -                 2        6.771 /_ -159.7   0.94047    12.470        2-3     12.022 /_ -129.3   0.96405
   -                 3       7.0676 /_   79.7   0.98166    12.470        3-1     12.036 /_  109.7   0.96517
N1139263 ........... 1       6.5393 /_  -42.2   0.90829    12.470
L3048227 ........... 1       6.5393 /_  -42.2   0.90829    12.470
P827506 ............ 1       6.5394 /_  -42.2    0.9083    12.470
M1069469 ........... 1       6.5393 /_  -42.2    0.9083    12.470
M1027019 ........... 2        6.633 /_ -164.0    0.9213    12.470
L2785522 ........... 2       6.6329 /_ -164.0   0.92129    12.470
L3216338 ........... 2       6.5807 /_ -164.2   0.91405    12.470
L2973146 ........... 2       6.5806 /_ -164.2   0.91404    12.470
M3037452 ........... 1       6.7996 /_  -39.4   0.94444    12.470
L2973164 ........... 1       6.7995 /_  -39.4   0.94443    12.470
L3120376 ........... 1       6.5163 /_  -42.6   0.90509    12.470
M1026925 ........... 1       6.5147 /_  -42.6   0.90488    12.470
M1047612 ........... 3       7.1484 /_   78.9   0.99289    12.470
P828360 ............ 3       7.1483 /_   78.9   0.99289    12.470
M1089195 ........... 3       7.2978 /_   80.0    1.0136    12.470
L3141393 ........... 3       7.2976 /_   80.0    1.0136    12.470
M1026946 ........... 2       6.6483 /_ -164.0   0.92343    12.470
M1026940 ........... 2       6.6478 /_ -164.0   0.92336    12.470
M1047471 ........... 2       6.4831 /_ -164.1   0.90048    12.470
L3216349 ........... 2        6.483 /_ -164.1   0.90048    12.470
M1047401 ........... 1       6.3796 /_  -42.5   0.88611    12.470
L2748132 ........... 1       6.3795 /_  -42.5    0.8861    12.470
L3122820 ........... 1       6.4049 /_  -42.5   0.88963    12.470
L3141398 ........... 1       6.4049 /_  -42.5   0.88962    12.470
M1108360 ........... 3        7.226 /_   81.3    1.0037    12.470
L3048968 ........... 3       7.2257 /_   81.3    1.0036    12.470
L2801950 ........... 3       7.0516 /_   80.2   0.97944    12.470
M1069224 ........... 3       7.0509 /_   80.2   0.97935    12.470
L2766746 ........... 3       7.0281 /_   78.7   0.97619    12.470
M1027073 ........... 3       7.0261 /_   78.7   0.97591    12.470
M1142873 ........... 3       7.3474 /_   82.1    1.0205    12.470
M1069181 ........... 1       7.0063 /_  -38.9   0.97316    12.470
L2973151 ........... 1       7.0048 /_  -38.9   0.97294    12.470
L3179682 ........... 3       7.3069 /_   81.4    1.0149    12.470
L2786274 ........... 3       7.3068 /_   81.4    1.0149    12.470
L3066816 ........... 1       6.4267 /_  -42.5   0.89265    12.470
M1026667 ........... 1       6.4264 /_  -42.5    0.8926    12.470
M1108529 ........... 1       6.9823 /_  -39.6   0.96982    12.470        1-2     12.183 /_   -9.9     0.977
   -                 2       7.0319 /_ -160.4   0.97671    12.470        2-3     12.352 /_ -129.2   0.99057
   -                 3       7.3072 /_   80.7    1.0149    12.470        3-1     12.394 /_  109.8   0.99389
M1108532 ........... 1       6.9805 /_  -39.7   0.96958    12.470        1-2     12.181 /_   -9.9   0.97682
   -                 2       7.0305 /_ -160.4   0.97652    12.470        2-3      12.35 /_ -129.2   0.99041
   -                 3        7.307 /_   80.6    1.0149    12.470        3-1     12.392 /_  109.7   0.99378
L2766723 ........... 1       6.4276 /_  -42.4   0.89278    12.470
L3122822 ........... 1       6.4275 /_  -42.4   0.89276    12.470
L2673312 ........... 1       6.4301 /_  -42.7   0.89312    12.470
L3235247 ........... 1       6.4299 /_  -42.7    0.8931    12.470
M1166391 ........... 3       7.3306 /_   84.9    1.0182    12.470
L3254873 ........... 3       7.3265 /_   84.9    1.0176    12.470
L2861157 ........... 3       7.3704 /_   84.9    1.0237    12.470
P901951 ............ 3       7.3666 /_   84.9    1.0232    12.470
M1047346 ........... 1        6.914 /_  -39.4   0.96033    12.470        1-2     11.884 /_   -9.8   0.95298
   -                 2       6.7929 /_ -159.6   0.94352    12.470        2-3      12.05 /_ -129.3    0.9663
   -                 3       7.0745 /_   79.7   0.98262    12.470        3-1     12.061 /_  109.8   0.96721
M1047345 ........... 1       6.9105 /_  -39.4   0.95985    12.470        1-2     11.878 /_   -9.8   0.95256
   -                 2       6.7901 /_ -159.6   0.94313    12.470        2-3     12.046 /_ -129.3     0.966
   -                 3       7.0735 /_   79.7   0.98249    12.470        3-1     12.058 /_  109.8   0.96692
L2989596 ........... 2       6.8842 /_ -162.5    0.9562    12.470
L2822873 ........... 2       6.8841 /_ -162.5   0.95618    12.470
M1108328 ........... 3       7.2835 /_   81.4    1.0117    12.470
L2875754 ........... 3       7.2834 /_   81.4    1.0117    12.470
L2786204 ........... 3       7.4338 /_   85.1    1.0325    12.470
M1209819 ........... 3       7.4294 /_   85.1    1.0319    12.470
P901972 ............ 1       6.4372 /_  -42.7   0.89412    12.470
M1009726 ........... 1       6.4348 /_  -42.7   0.89378    12.470
M1047702 ........... 1        6.573 /_  -42.1   0.91298    12.470
N1137001 ........... 1        6.573 /_  -42.1   0.91297    12.470
L2767340 ........... 1       7.1009 /_  -38.5    0.9863    12.470        1-2     12.342 /_   -8.7   0.98971
   -                 2        7.116 /_ -159.0   0.98839    12.470        2-3     12.481 /_ -128.3    1.0009
   -                 3       7.3276 /_   81.4    1.0178    12.470        3-1     12.494 /_  110.9    1.0019
M3037449 ........... 1       7.1009 /_  -38.5    0.9863    12.470        1-2     12.342 /_   -8.7   0.98971
   -                 2        7.116 /_ -159.0   0.98839    12.470        2-3     12.481 /_ -128.3    1.0009
   -                 3       7.3276 /_   81.4    1.0178    12.470        3-1     12.494 /_  110.9    1.0019
M1047457 ........... 2       6.4899 /_ -164.0   0.90143    12.470
L2710546 ........... 2       6.4891 /_ -164.0   0.90132    12.470
L2674027 ........... 1       6.9946 /_  -39.5   0.97153    12.470        1-2       12.2 /_   -9.8   0.97839
   -                 2       7.0423 /_ -160.2   0.97815    12.470        2-3     12.367 /_ -129.1   0.99176
   -                 3       7.3096 /_   80.8    1.0153    12.470        3-1     12.405 /_  109.9   0.99481
L2692633 ........... 1         6.99 /_  -39.6   0.97089    12.470        1-2     12.194 /_   -9.8   0.97787
   -                 2       7.0384 /_ -160.3   0.97761    12.470        2-3     12.362 /_ -129.2   0.99132
   -                 3       7.3087 /_   80.7    1.0152    12.470        3-1     12.401 /_  109.8   0.99446
N1142108 ........... 1       7.2768 /_  -37.6    1.0107    12.470
L2674051 ........... 1       7.2767 /_  -37.6    1.0107    12.470
M1069135 ........... 1       6.9366 /_  -39.4   0.96347    12.470        1-2     11.918 /_   -9.8   0.95573
   -                 2       6.8114 /_ -159.6   0.94608    12.470        2-3     12.075 /_ -129.3    0.9683
   -                 3       7.0818 /_   79.7   0.98364    12.470        3-1     12.085 /_  109.8   0.96916
R18242 ............. 1        6.932 /_  -39.4   0.96284    12.470        1-2     11.911 /_   -9.8   0.95519
   -                 2       6.8079 /_ -159.6    0.9456    12.470        2-3      12.07 /_ -129.3   0.96795
   -                 3        7.081 /_   79.7   0.98353    12.470        3-1     12.081 /_  109.8   0.96882
M1047534 ........... 1       6.6754 /_  -41.9    0.9272    12.470        1-2     11.748 /_  -12.2    0.9421
   -                 2        6.808 /_ -163.1   0.94562    12.470        2-3     11.989 /_ -131.1   0.96146
   -                 3        7.194 /_   79.1   0.99923    12.470        3-1     12.075 /_  107.4   0.96831
N1136663 ........... 1       6.6568 /_  -42.0   0.92462    12.470        1-2     11.719 /_  -12.3   0.93975
   -                 2       6.7933 /_ -163.2   0.94357    12.470        2-3     11.965 /_ -131.1   0.95947
   -                 3       7.1816 /_   79.1   0.99751    12.470        3-1      12.05 /_  107.3    0.9663
M1108508 ........... 3       7.3026 /_   80.4    1.0143    12.470
L3097861 ........... 3       7.3026 /_   80.4    1.0143    12.470
M1069560 ........... 2       6.8804 /_ -162.5   0.95568    12.470
L2973153 ........... 1       6.5827 /_  -42.1   0.91433    12.470        1-2     11.581 /_  -12.6    0.9287
   -                 2       6.6959 /_ -163.5   0.93005    12.470        2-3     11.841 /_ -131.2    0.9496
   -                 3       7.1499 /_   78.9   0.99311    12.470        3-1     11.959 /_  107.1   0.95899
N1136998 ........... 1       6.5822 /_  -42.1   0.91426    12.470        1-2      11.58 /_  -12.6    0.9286
   -                 2       6.6948 /_ -163.5   0.92989    12.470        2-3      11.84 /_ -131.2   0.94952
   -                 3         7.15 /_   78.9   0.99312    12.470        3-1     11.958 /_  107.1   0.95896
L2898515 ........... 3       7.3986 /_   83.5    1.0276    12.470
M1166387 ........... 3       7.3984 /_   83.5    1.0276    12.470
M1047442 ........... 2       6.5161 /_ -164.0   0.90507    12.470
L3235250 ........... 2        6.516 /_ -164.0   0.90506    12.470
M1142871 ........... 1       7.2188 /_  -37.5    1.0027    12.470        1-2     12.499 /_   -7.7    1.0023
   -                 2       7.2023 /_ -157.7    1.0004    12.470        2-3     12.611 /_ -127.4    1.0113
   -                 3       7.3489 /_   82.2    1.0207    12.470        3-1     12.597 /_  112.0    1.0102
M1142874 ........... 1       7.2152 /_  -37.6    1.0022    12.470        1-2     12.494 /_   -7.7    1.0019
   -                 2       7.1995 /_ -157.7   0.99999    12.470        2-3     12.607 /_ -127.5     1.011
   -                 3       7.3481 /_   82.1    1.0206    12.470        3-1     12.594 /_  112.0    1.0099
L2955081 ........... 1       7.2778 /_  -37.6    1.0109    12.470        1-2     12.525 /_   -7.8    1.0044
   -                 2       7.1924 /_ -157.5   0.99901    12.470        2-3     12.621 /_ -127.8    1.0121
   -                 3       7.3098 /_   81.5    1.0153    12.470        3-1     12.577 /_  111.9    1.0086
M1108315 ........... 1       7.2785 /_  -37.7     1.011    12.470        1-2     12.522 /_   -7.8    1.0042
   -                 2       7.1901 /_ -157.5   0.99869    12.470        2-3     12.619 /_ -127.8     1.012
   -                 3       7.3071 /_   81.4    1.0149    12.470        3-1     12.574 /_  111.8    1.0083
L2973162 ........... 1       6.8125 /_  -39.4   0.94624    12.470        1-2     11.704 /_  -10.0   0.93856
   -                 2       6.6672 /_ -159.9   0.92606    12.470        2-3      11.91 /_ -129.1   0.95513
   -                 3       7.0597 /_   79.8   0.98057    12.470        3-1     11.962 /_  109.6   0.95925
M1026333 ........... 1        6.812 /_  -39.3   0.94617    12.470        1-2     11.701 /_  -10.0   0.93836
   -                 2       6.6639 /_ -159.9    0.9256    12.470        2-3     11.908 /_ -129.1   0.95492
   -                 3       7.0605 /_   79.8   0.98068    12.470        3-1     11.962 /_  109.6   0.95924
M1009832 ........... 2       6.5883 /_ -164.2    0.9151    12.470
L2860479 ........... 2       6.5883 /_ -164.2   0.91509    12.470
M1026854 ........... 1       6.5299 /_  -42.5   0.90698    12.470        1-2     11.541 /_  -12.7   0.92548
   -                 2       6.7184 /_ -163.7   0.93317    12.470        2-3     11.829 /_ -131.4   0.94858
   -                 3        7.124 /_   78.9   0.98951    12.470        3-1     11.913 /_  106.8   0.95536
P901894 ............ 1       6.5297 /_  -42.5   0.90695    12.470
M1026485 ........... 2       6.7515 /_ -159.7   0.93776    12.470
M1026492 ........... 2       6.7512 /_ -159.7   0.93773    12.470
D6413567-3_INT ..... 1       7.0272 /_  -38.9   0.97606    12.470        1-2     12.076 /_   -9.1   0.96837
   -                 2       6.9207 /_ -158.8   0.96127    12.470        2-3     12.191 /_ -128.9   0.97759
   -                 3       7.0864 /_   80.2   0.98429    12.470        3-1     12.165 /_  110.5   0.97558
E182724 ............ 1       7.0271 /_  -38.9   0.97605    12.470        1-2     12.076 /_   -9.1   0.96837
   -                 2       6.9206 /_ -158.8   0.96126    12.470        2-3     12.191 /_ -128.9   0.97759
   -                 3       7.0864 /_   80.2   0.98429    12.470        3-1     12.165 /_  110.5   0.97558
N1139541 ........... 1        7.029 /_  -38.9   0.97631    12.470        1-2     12.078 /_   -9.1   0.96859
   -                 2       6.9221 /_ -158.8   0.96147    12.470        2-3     12.192 /_ -128.9   0.97773
   -                 3       7.0866 /_   80.2   0.98432    12.470        3-1     12.167 /_  110.5   0.97571
M4122658 ........... 1       7.0506 /_  -39.0   0.97932    12.470        1-2     12.276 /_   -9.2   0.98447
   -                 2       7.0836 /_ -159.6   0.98389    12.470        2-3     12.429 /_ -128.7   0.99673
   -                 3       7.3198 /_   81.2    1.0167    12.470        3-1     12.454 /_  110.5   0.99871
L2933135 ........... 1       7.0505 /_  -39.0    0.9793    12.470        1-2     12.276 /_   -9.2   0.98446
   -                 2       7.0835 /_ -159.6   0.98388    12.470        2-3     12.429 /_ -128.7   0.99672
   -                 3       7.3197 /_   81.2    1.0167    12.470        3-1     12.454 /_  110.5    0.9987
L2729414 ........... 1       6.4525 /_  -42.4   0.89623    12.470        1-2     11.452 /_  -12.2   0.91834
   -                 2       6.7134 /_ -163.2   0.93247    12.470        2-3      11.76 /_ -131.3   0.94304
   -                 3       7.0247 /_   79.0   0.97572    12.470        3-1     11.758 /_  107.0   0.94287
L2729430 ........... 2       6.6216 /_ -164.1   0.91973    12.470
L2766742 ........... 2       6.6153 /_ -164.1   0.91885    12.470
M1026972 ........... 2        6.519 /_ -163.9   0.90547    12.470
L2860483 ........... 2       6.5188 /_ -163.9   0.90544    12.470
L2860490 ........... 1       6.9228 /_  -39.4   0.96156    12.470        1-2     11.897 /_   -9.8   0.95407
   -                 2       6.8004 /_ -159.6   0.94456    12.470        2-3      12.06 /_ -129.3   0.96712
   -                 3       7.0776 /_   79.7   0.98307    12.470        3-1     12.071 /_  109.8     0.968
L3104134 ........... 1       6.9177 /_  -39.4   0.96085    12.470        1-2     11.889 /_   -9.8   0.95343
   -                 2        6.796 /_ -159.6   0.94395    12.470        2-3     12.054 /_ -129.3   0.96663
   -                 3       7.0757 /_   79.7    0.9828    12.470        3-1     12.065 /_  109.8   0.96753
M1089144 ........... 1       7.1589 /_  -38.2   0.99436    12.470
P827522 ............ 1       7.1589 /_  -38.2   0.99435    12.470
M1089118 ........... 1       7.0826 /_  -38.6   0.98376    12.470        1-2     12.167 /_   -8.8   0.97568
   -                 2       6.9727 /_ -158.5   0.96848    12.470        2-3     12.267 /_ -128.7   0.98372
   -                 3       7.1185 /_   80.5   0.98874    12.470        3-1     12.239 /_  110.8    0.9815
L3048208 ........... 1       7.0826 /_  -38.6   0.98375    12.470
M1108505 ........... 1       7.0069 /_  -39.4   0.97324    12.470        1-2     12.218 /_   -9.6   0.97976
   -                 2       7.0527 /_ -160.1   0.97961    12.470        2-3     12.382 /_ -129.0   0.99294
   -                 3       7.3116 /_   80.9    1.0156    12.470        3-1     12.417 /_  110.0   0.99571
L2955047 ........... 1       7.0031 /_  -39.4   0.97272    12.470        1-2     12.212 /_   -9.7   0.97934
   -                 2       7.0495 /_ -160.1   0.97916    12.470        2-3     12.377 /_ -129.0   0.99258
   -                 3        7.311 /_   80.8    1.0155    12.470        3-1     12.413 /_  110.0   0.99544
M1089148 ........... 1       7.1561 /_  -38.2   0.99397    12.470
L2766721 ........... 1        7.156 /_  -38.2   0.99395    12.470
M1026745 ........... 2       6.4798 /_ -164.1   0.90003    12.470
L3029183 ........... 2       6.4797 /_ -164.1   0.90002    12.470
L2710512 ........... 2       6.4941 /_ -164.0   0.90201    12.470
M1047828 ........... 2       6.4902 /_ -164.0   0.90147    12.470
M1047342 ........... 1       6.9099 /_  -39.4   0.95977    12.470
L3197645 ........... 1       6.9098 /_  -39.4   0.95976    12.470
M1069192 ........... 1        7.011 /_  -38.9   0.97381    12.470
L3235253 ........... 1       7.0108 /_  -38.9   0.97379    12.470
L3214071 ........... 1       7.1637 /_  -38.0   0.99501    12.470        1-2     12.424 /_   -8.2    0.9963
   -                 2       7.1602 /_ -158.3   0.99453    12.470        2-3     12.549 /_ -127.9    1.0063
   -                 3       7.3376 /_   81.8    1.0192    12.470        3-1     12.547 /_  111.5    1.0061
M1125952 ........... 1       7.1586 /_  -38.0   0.99431    12.470        1-2     12.417 /_   -8.2   0.99575
   -                 2       7.1563 /_ -158.4     0.994    12.470        2-3     12.543 /_ -127.9    1.0058
   -                 3       7.3366 /_   81.8     1.019    12.470        3-1     12.542 /_  111.5    1.0058
M1027101 ........... 2       6.4908 /_ -164.0   0.90155    12.470
L2860480 ........... 2       6.4905 /_ -164.0   0.90152    12.470
L2710517 ........... 1       6.4067 /_  -42.5   0.88987    12.470
M1026646 ........... 1       6.4054 /_  -42.5    0.8897    12.470
M1069662 ........... 2       6.8404 /_ -162.5   0.95011    12.470
L2935547 ........... 2       6.8403 /_ -162.5    0.9501    12.470
M1026931 ........... 1       6.5104 /_  -42.6   0.90428    12.470
L3216336 ........... 1         6.51 /_  -42.6   0.90422    12.470
L3142049 ........... 1        7.028 /_  -39.2   0.97617    12.470        1-2     12.246 /_   -9.4   0.98203
   -                 2       7.0677 /_ -159.8   0.98169    12.470        2-3     12.405 /_ -128.8   0.99477
   -                 3       7.3154 /_   81.0    1.0161    12.470        3-1     12.434 /_  110.2   0.99715
M1108493 ........... 1       7.0216 /_  -39.3   0.97528    12.470        1-2     12.237 /_   -9.5   0.98134
   -                 2       7.0631 /_ -159.9   0.98105    12.470        2-3     12.398 /_ -128.9   0.99422
   -                 3       7.3142 /_   81.0    1.0159    12.470        3-1     12.429 /_  110.2   0.99671
M1069169 ........... 1        7.016 /_  -38.9    0.9745    12.470        1-2     12.059 /_   -9.1   0.96704
   -                 2       6.9117 /_ -158.9   0.96001    12.470        2-3      12.18 /_ -128.9   0.97673
   -                 3       7.0851 /_   80.2    0.9841    12.470        3-1     12.156 /_  110.5   0.97478
L3010556 ........... 1       7.0097 /_  -39.0   0.97363    12.470        1-2     12.048 /_   -9.2   0.96615
   -                 2        6.904 /_ -158.9   0.95894    12.470        2-3     12.171 /_ -129.0   0.97606
   -                 3       7.0843 /_   80.1   0.98399    12.470        3-1     12.149 /_  110.4    0.9743
L2991933 ........... 3       7.0932 /_   78.8   0.98523    12.470
L3122837 ........... 3       7.0926 /_   78.8   0.98514    12.470
L2691936 ........... 1       6.5095 /_  -42.6   0.90415    12.470
L2897772 ........... 1       6.8641 /_  -39.4    0.9534    12.470
L3101814 ........... 1       6.8641 /_  -39.4    0.9534    12.470
L2766732 ........... 2       6.7517 /_ -159.7   0.93779    12.470
L2989564 ........... 2       6.8407 /_ -162.5   0.95015    12.470
M1126016 ........... 1       6.9933 /_  -39.4   0.97135    12.470
L3120534 ........... 1        6.993 /_  -39.4   0.97131    12.470
M1026330 ........... 1       6.8112 /_  -39.3   0.94605    12.470        1-2     11.697 /_  -10.0   0.93797
   -                 2       6.6575 /_ -159.9   0.92471    12.470        2-3     11.903 /_ -129.1   0.95453
   -                 3        7.062 /_   79.8    0.9809    12.470        3-1     11.962 /_  109.6   0.95923
L2766726 ........... 2       6.6575 /_ -159.9   0.92471    12.470
P901912 ............ 2       6.7147 /_ -163.3   0.93266    12.470
L3195365 ........... 2       6.7147 /_ -163.3   0.93266    12.470
M1108381 ........... 1        7.058 /_  -38.7   0.98034    12.470        1-2     12.277 /_   -9.0   0.98449
   -                 2       7.0766 /_ -159.3   0.98292    12.470        2-3     12.427 /_ -128.4   0.99654
   -                 3       7.3172 /_   81.3    1.0163    12.470        3-1     12.452 /_  110.7   0.99859
L3254237 ........... 1       7.0569 /_  -38.7   0.98019    12.470        1-2     12.275 /_   -9.0   0.98436
   -                 2       7.0758 /_ -159.3   0.98282    12.470        2-3     12.426 /_ -128.4   0.99644
   -                 3       7.3165 /_   81.3    1.0162    12.470        3-1     12.451 /_  110.7   0.99846
L2804262 ........... 1       6.5274 /_  -42.5   0.90664    12.470
L2841639 ........... 1       6.5253 /_  -42.5   0.90634    12.470
N1230123 ........... 2       7.0829 /_ -159.3   0.98379    12.470
L2708744 ........... 2       7.0814 /_ -159.3   0.98359    12.470
M1069519 ........... 1         6.84 /_  -40.9   0.95006    12.470        1-2     12.002 /_  -11.4   0.96246
   -                 2       6.9224 /_ -162.3   0.96151    12.470        2-3     12.194 /_ -130.4   0.97784
   -                 3       7.3012 /_   79.7    1.0141    12.470        3-1     12.285 /_  108.3    0.9852
P901927 ............ 2       6.9224 /_ -162.3    0.9615    12.470
L2897790 ........... 3       7.3051 /_   79.7    1.0147    12.470
L2935566 ........... 3        7.305 /_   79.7    1.0146    12.470
L3216337 ........... 1       6.5104 /_  -42.6   0.90427    12.470
P901931 ............ 3       7.3054 /_   79.7    1.0147    12.470
M1069548 ........... 3       7.3053 /_   79.7    1.0147    12.470
M1010013 ........... 1       6.3653 /_  -42.9   0.88412    12.470
L3120503 ........... 1       6.3652 /_  -42.9   0.88412    12.470
M1089145 ........... 1       7.1587 /_  -38.2   0.99433    12.470        1-2      12.31 /_   -8.4   0.98714
   -                 2       7.0626 /_ -158.1   0.98097    12.470        2-3     12.412 /_ -128.3   0.99536
   -                 3       7.1969 /_   80.9   0.99963    12.470        3-1     12.375 /_  111.2   0.99236
L3215385 ........... 1       7.1587 /_  -38.2   0.99432    12.470        1-2     12.309 /_   -8.4   0.98713
   -                 2       7.0625 /_ -158.1   0.98096    12.470        2-3     12.412 /_ -128.3   0.99534
   -                 3       7.1968 /_   80.9   0.99962    12.470        3-1     12.375 /_  111.2   0.99235
M1026852 ........... 1        6.523 /_  -42.6   0.90603    12.470        1-2     11.531 /_  -12.7   0.92469
   -                 2       6.7135 /_ -163.7   0.93249    12.470        2-3     11.821 /_ -131.4   0.94795
   -                 3       7.1215 /_   78.9   0.98916    12.470        3-1     11.906 /_  106.8   0.95479
M1069420 ........... 1       6.5298 /_  -42.2   0.90698    12.470        1-2     11.458 /_  -12.8   0.91888
   -                 2       6.5986 /_ -163.7   0.91653    12.470        2-3     11.679 /_ -131.6   0.93655
   -                 3       7.0318 /_   78.4   0.97671    12.470        3-1      11.78 /_  106.9   0.94463
L3157708 ........... 3       7.1128 /_   79.0   0.98794    12.470
N1137991 ........... 3       7.1127 /_   79.0   0.98794    12.470
M1108413 ........... 1       7.0622 /_  -38.7   0.98092    12.470
M1108460 ........... 1         7.06 /_  -38.7   0.98062    12.470
P827532 ............ 1         6.89 /_  -39.4   0.95701    12.470
M1047326 ........... 1         6.89 /_  -39.4   0.95701    12.470
E182732 ............ 1        6.485 /_  -42.3   0.90074    12.470        1-2     11.487 /_  -12.2   0.92118
   -                 2       6.7169 /_ -163.3   0.93296    12.470        2-3     11.781 /_ -131.3   0.94479
   -                 3       7.0461 /_   79.0   0.97869    12.470        3-1       11.8 /_  107.0   0.94625
M1026760 ........... 1       6.4842 /_  -42.3   0.90064    12.470        1-2     11.486 /_  -12.2   0.92112
   -                 2       6.7168 /_ -163.3   0.93294    12.470        2-3     11.781 /_ -131.3   0.94475
   -                 3       7.0456 /_   79.0   0.97862    12.470        3-1     11.799 /_  107.0   0.94617
L3048205 ........... 3       7.2157 /_   81.3    1.0022    12.470
M1108361 ........... 3       7.2029 /_   81.2    1.0005    12.470
M3036169 ........... 1       6.4094 /_  -42.5   0.89025    12.470
L2673317 ........... 1       6.4094 /_  -42.5   0.89024    12.470
L3178981 ........... 2       6.8051 /_ -159.6   0.94522    12.470
M1047368 ........... 2       6.7942 /_ -159.6    0.9437    12.470
N1136354 ........... 1       6.8386 /_  -40.9   0.94987    12.470        1-2     12.001 /_  -11.4   0.96239
   -                 2       6.9191 /_ -162.4   0.96104    12.470        2-3     12.191 /_ -130.4    0.9776
   -                 3       7.3037 /_   79.7    1.0145    12.470        3-1     12.285 /_  108.3   0.98519
L2879794 ........... 1       7.2678 /_  -37.4    1.0095    12.470
M1142811 ........... 1       7.2675 /_  -37.4    1.0094    12.470
M1069565 ........... 2       6.8843 /_ -162.5   0.95621    12.470
L2785536 ........... 2        6.884 /_ -162.5   0.95617    12.470
L3104114 ........... 2       6.6017 /_ -164.1   0.91696    12.470
M1009824 ........... 2       6.5989 /_ -164.1   0.91658    12.470
L2745848 ........... 1       6.5436 /_  -42.2   0.90889    12.470        1-2     11.503 /_  -12.6   0.92245
   -                 2       6.6508 /_ -163.5   0.92378    12.470        2-3      11.74 /_ -131.5   0.94149
   -                 3       7.0526 /_   78.6   0.97959    12.470        3-1     11.824 /_  107.0   0.94819
L2673308 ........... 1       6.5428 /_  -42.2   0.90878    12.470        1-2       11.5 /_  -12.6   0.92225
   -                 2       6.6479 /_ -163.5   0.92337    12.470        2-3     11.737 /_ -131.5   0.94121
   -                 3       7.0516 /_   78.6   0.97945    12.470        3-1     11.822 /_  107.0     0.948
L2991939 ........... 1       6.5412 /_  -42.2   0.90856    12.470        1-2     11.496 /_  -12.6   0.92186
   -                 2       6.6424 /_ -163.6   0.92261    12.470        2-3      11.73 /_ -131.5   0.94069
   -                 3       7.0495 /_   78.6   0.97916    12.470        3-1     11.817 /_  107.0   0.94763
L2916606 ........... 3       7.2349 /_   81.3    1.0049    12.470
L2822864 ........... 3       7.2348 /_   81.3    1.0049    12.470
M1142851 ........... 1       7.2591 /_  -37.2    1.0083    12.470        1-2     12.555 /_   -7.3    1.0068
   -                 2       7.2337 /_ -157.3    1.0047    12.470        2-3     12.657 /_ -127.1     1.015
   -                 3       7.3586 /_   82.4    1.0221    12.470        3-1     12.636 /_  112.4    1.0133
196-31070 .......... 1       7.2578 /_  -37.2    1.0081    12.470        1-2     12.553 /_   -7.3    1.0067
   -                 2       7.2327 /_ -157.3    1.0046    12.470        2-3     12.656 /_ -127.2    1.0149
   -                 3       7.3582 /_   82.4     1.022    12.470        3-1     12.634 /_  112.4    1.0132
M1209822 ........... 3       7.3901 /_   85.0    1.0265    12.470
M1209823 ........... 3       7.3868 /_   85.0     1.026    12.470
M1069550 ........... 2       6.8883 /_ -162.4   0.95677    12.470
M1069551 ........... 2        6.888 /_ -162.4   0.95672    12.470
L3141397 ........... 2       6.5187 /_ -163.9   0.90543    12.470
L3649299 ........... 1       6.5554 /_  -42.4   0.91052    12.470
M3772794 ........... 1       6.5553 /_  -42.4   0.91052    12.470
P895106 ............ 2       7.1273 /_ -158.8   0.98997    12.470
L3048887 ........... 2       7.1269 /_ -158.8   0.98991    12.470
M1047824 ........... 2       6.4961 /_ -164.0   0.90229    12.470
M1047834 ........... 2       6.4922 /_ -164.0   0.90176    12.470
M1069350 ........... 1       6.5278 /_  -42.1    0.9067    12.470        1-2     11.436 /_  -12.9   0.91706
   -                 2         6.57 /_ -163.8   0.91256    12.470        2-3     11.643 /_ -131.7   0.93371
   -                 3        7.011 /_   78.2   0.97381    12.470        3-1     11.749 /_  106.9   0.94215
N1144668 ........... 1       6.5281 /_  -42.2   0.90674    12.470        1-2     11.436 /_  -12.9   0.91705
   -                 2       6.5699 /_ -163.8   0.91254    12.470        2-3     11.643 /_ -131.7   0.93368
   -                 3       7.0101 /_   78.2   0.97369    12.470        3-1     11.748 /_  106.9   0.94209
L2879072 ........... 2       6.5308 /_ -163.9   0.90711    12.470
M1047441 ........... 2       6.5182 /_ -163.9   0.90537    12.470
M1108274 ........... 2        6.961 /_ -158.5   0.96687    12.470
M1108269 ........... 2       6.9609 /_ -158.5   0.96685    12.470
L3235244 ........... 1         6.52 /_  -42.2   0.90561    12.470
M1069398 ........... 1       6.5196 /_  -42.2   0.90556    12.470
N1147862 ........... 1       6.4679 /_  -42.6   0.89838    12.470
L2685805 ........... 1       6.4678 /_  -42.6   0.89836    12.470
M1069247 ........... 1       6.5284 /_  -42.2   0.90677    12.470
M1069248 ........... 1       6.5281 /_  -42.2   0.90674    12.470
L2786273 ........... 2       6.9604 /_ -158.5   0.96678    12.470
M1108278 ........... 2       6.9598 /_ -158.5    0.9667    12.470
L3254238 ........... 1       6.8589 /_  -39.4   0.95268    12.470        1-2      11.79 /_   -9.9    0.9455
   -                 2       6.7336 /_ -159.7   0.93528    12.470        2-3     11.976 /_ -129.2   0.96035
   -                 3       7.0564 /_   79.7   0.98012    12.470        3-1     11.999 /_  109.7   0.96226
M1047303 ........... 1       6.8543 /_  -39.4   0.95205    12.470        1-2     11.781 /_   -9.9   0.94479
   -                 2       6.7269 /_ -159.7   0.93435    12.470        2-3     11.968 /_ -129.2   0.95972
   -                 3       7.0547 /_   79.7   0.97988    12.470        3-1     11.994 /_  109.7   0.96181
M1047633 ........... 3       7.1459 /_   78.9   0.99255    12.470
L2897554 ........... 3       7.1454 /_   78.9   0.99248    12.470
M1069627 ........... 2       6.8391 /_ -162.6   0.94993    12.470
L2897791 ........... 2       6.8377 /_ -162.6   0.94974    12.470
M1089097 ........... 2       6.9648 /_ -158.5   0.96739    12.470
M1108270 ........... 2       6.9639 /_ -158.5   0.96727    12.470
N1142101 ........... 1       7.0313 /_  -39.2   0.97663    12.470
L2936214 ........... 1       7.0312 /_  -39.2   0.97662    12.470
L3066810 ........... 3       7.0374 /_   78.4   0.97748    12.470
L2897769 ........... 3       7.0364 /_   78.4   0.97733    12.470
M1209758 ........... 2        7.367 /_ -155.4    1.0233    12.470
M1209753 ........... 2       7.3665 /_ -155.4    1.0232    12.470
M1047528 ........... 1       6.6248 /_  -42.1   0.92017    12.470        1-2     11.669 /_  -12.4   0.93575
   -                 2       6.7672 /_ -163.3   0.93994    12.470        2-3     11.922 /_ -131.2   0.95603
   -                 3       7.1623 /_   79.0   0.99482    12.470        3-1     12.008 /_  107.2   0.96297
L2858166 ........... 1       6.6244 /_  -42.1   0.92011    12.470        1-2     11.668 /_  -12.4    0.9357
   -                 2       6.7668 /_ -163.3   0.93989    12.470        2-3     11.921 /_ -131.2   0.95599
   -                 3       7.1621 /_   79.0    0.9948    12.470        3-1     12.008 /_  107.2   0.96293
M1142843 ........... 1       7.2718 /_  -37.1      1.01    12.470        1-2     12.573 /_   -7.2    1.0083
   -                 2       7.2436 /_ -157.1    1.0061    12.470        2-3     12.672 /_ -127.1    1.0162
   -                 3       7.3619 /_   82.5    1.0225    12.470        3-1     12.648 /_  112.5    1.0143
L3081380 ........... 1        7.272 /_  -37.1    1.0101    12.470        1-2      12.57 /_   -7.2     1.008
   -                 2       7.2402 /_ -157.2    1.0056    12.470        2-3     12.668 /_ -127.1    1.0159
   -                 3       7.3584 /_   82.4    1.0221    12.470        3-1     12.643 /_  112.5    1.0139
L2804272 ........... 2       6.8876 /_ -162.4   0.95667    12.470
L2841641 ........... 2       6.8875 /_ -162.4   0.95665    12.470
M1069393 ........... 2       6.5519 /_ -163.9   0.91004    12.470
M1069408 ........... 2       6.5474 /_ -163.9   0.90942    12.470
N1142104 ........... 1       7.0123 /_  -39.3   0.97399    12.470        1-2     12.225 /_   -9.6   0.98034
   -                 2       7.0565 /_ -160.0   0.98013    12.470        2-3     12.388 /_ -129.0   0.99341
   -                 3       7.3126 /_   80.9    1.0157    12.470        3-1     12.421 /_  110.1   0.99608
M1108500 ........... 1       7.0088 /_  -39.4   0.97351    12.470        1-2      12.22 /_   -9.6   0.97997
   -                 2       7.0541 /_ -160.1    0.9798    12.470        2-3     12.384 /_ -129.0   0.99311
   -                 3        7.312 /_   80.9    1.0156    12.470        3-1     12.418 /_  110.1   0.99585
L3216348 ........... 1       6.3818 /_  -42.5   0.88642    12.470
L2841627 ........... 1       6.3804 /_  -42.5   0.88623    12.470
L2916599 ........... 1       6.5147 /_  -42.6   0.90488    12.470
M1047447 ........... 2       6.5049 /_ -164.0   0.90351    12.470
L2954349 ........... 2       6.5048 /_ -164.0   0.90349    12.470
L3235246 ........... 2       6.4963 /_ -164.0   0.90232    12.470
M1125911 ........... 2       7.2023 /_ -157.4    1.0004    12.470
L2711224 ........... 2        7.201 /_ -157.5    1.0002    12.470
N1147863 ........... 3       7.1037 /_   78.8   0.98669    12.470
L3122817 ........... 3       7.1037 /_   78.8   0.98668    12.470
M1186061 ........... 1       7.3882 /_  -35.4    1.0262    12.470        1-2     12.778 /_   -5.5    1.0247
   -                 2       7.3687 /_ -155.4    1.0235    12.470        2-3     12.838 /_ -125.5    1.0295
   -                 3       7.4285 /_   84.2    1.0318    12.470        3-1      12.81 /_  114.3    1.0272
L2861223 ........... 2       7.3686 /_ -155.4    1.0235    12.470
M1069130 ........... 1       6.9352 /_  -39.4   0.96328    12.470
L3085396 ........... 1       6.9349 /_  -39.4   0.96324    12.470
E182730 ............ 1       6.4938 /_  -42.3   0.90198    12.470
N1142109 ........... 1       6.4938 /_  -42.3   0.90197    12.470
M1069417 ........... 1       6.5264 /_  -42.1    0.9065    12.470        1-2     11.446 /_  -12.8    0.9179
   -                 2       6.5837 /_ -163.8   0.91446    12.470        2-3     11.661 /_ -131.6   0.93516
   -                 3       7.0261 /_   78.3   0.97591    12.470        3-1     11.767 /_  106.9   0.94364
N1138597 ........... 1       6.5261 /_  -42.1   0.90646    12.470        1-2     11.445 /_  -12.8   0.91782
   -                 2       6.5825 /_ -163.8   0.91429    12.470        2-3      11.66 /_ -131.6   0.93505
   -                 3       7.0256 /_   78.3   0.97584    12.470        3-1     11.766 /_  106.9   0.94356
M1026987 ........... 2       6.5128 /_ -163.9   0.90461    12.470
M1026990 ........... 2       6.5114 /_ -163.9   0.90442    12.470
M1142832 ........... 1       7.2723 /_  -37.2    1.0101    12.470        1-2     12.563 /_   -7.3    1.0074
   -                 2       7.2331 /_ -157.2    1.0047    12.470        2-3     12.661 /_ -127.2    1.0153
   -                 3       7.3512 /_   82.3    1.0211    12.470        3-1     12.633 /_  112.4    1.0131
L3160865 ........... 1       7.2722 /_  -37.2    1.0101    12.470        1-2     12.561 /_   -7.3    1.0073
   -                 2       7.2312 /_ -157.2    1.0044    12.470        2-3     12.659 /_ -127.2    1.0151
   -                 3       7.3494 /_   82.3    1.0208    12.470        3-1     12.631 /_  112.3    1.0129
L2673323 ........... 3       7.0928 /_   78.8   0.98518    12.470
M1009809 ........... 3       7.0927 /_   78.8   0.98515    12.470
L2822869 ........... 1        6.547 /_  -42.2   0.90936    12.470        1-2     11.555 /_  -12.3   0.92665
   -                 2       6.7233 /_ -163.3   0.93385    12.470        2-3     11.823 /_ -131.2   0.94808
   -                 3       7.0866 /_   79.0    0.9843    12.470        3-1     11.879 /_  107.1   0.95262
M1026808 ........... 1       6.5389 /_  -42.2   0.90823    12.470        1-2     11.546 /_  -12.3   0.92593
   -                 2       6.7224 /_ -163.3   0.93373    12.470        2-3     11.817 /_ -131.2   0.94761
   -                 3       7.0806 /_   79.0   0.98348    12.470        3-1     11.868 /_  107.1   0.95173
M1047825 ........... 2       6.4839 /_ -164.0    0.9006    12.470
M1069731 ........... 2       6.4825 /_ -164.0   0.90041    12.470
N1140520 ........... 3       7.0806 /_   79.0   0.98348    12.470
L2729410 ........... 3       7.0806 /_   79.0   0.98347    12.470
L3178978 ........... 1       6.4013 /_  -42.5   0.88912    12.470
M1069384 ........... 1       6.5212 /_  -42.1   0.90578    12.470
L3066805 ........... 1       6.5211 /_  -42.2   0.90577    12.470
M4362181 ........... 2       6.4887 /_ -164.0   0.90126    12.470
M1047319 ........... 3       7.0496 /_   79.7   0.97918    12.470
M1047318 ........... 3       7.0492 /_   79.7   0.97912    12.470
L3216358 ........... 1       6.5043 /_  -42.6   0.90344    12.470
M1026826 ........... 1       6.5032 /_  -42.6   0.90327    12.470
M1108276 ........... 2       6.9607 /_ -158.5   0.96682    12.470
M1089198 ........... 1        6.916 /_  -40.3   0.96062    12.470        1-2     12.097 /_  -10.6   0.97008
   -                 2       6.9828 /_ -161.3   0.96989    12.470        2-3      12.28 /_ -129.8   0.98474
   -                 3       7.3007 /_   80.2     1.014    12.470        3-1     12.341 /_  109.1   0.98967
M1089201 ........... 1       6.9036 /_  -40.4   0.95889    12.470        1-2     12.081 /_  -10.7    0.9688
   -                 2       6.9736 /_ -161.4   0.96861    12.470        2-3     12.266 /_ -129.9   0.98365
   -                 3       7.2997 /_   80.1    1.0139    12.470        3-1     12.332 /_  109.0   0.98889
M1047763 ........... 1       6.5363 /_  -41.9   0.90788    12.470        1-2     11.441 /_  -12.8    0.9175
   -                 2       6.5474 /_ -163.9   0.90942    12.470        2-3     11.721 /_ -130.8   0.93993
   -                 3       7.1791 /_   78.9   0.99717    12.470        3-1     11.932 /_  107.0   0.95685
N1136027 ........... 1       6.5361 /_  -41.9   0.90784    12.470
L3101827 ........... 3       7.3042 /_   80.6    1.0145    12.470
M1108540 ........... 3       7.3011 /_   80.6    1.0141    12.470
M1026335 ........... 1        6.812 /_  -39.3   0.94616    12.470
L2804259 ........... 1       6.8118 /_  -39.3   0.94615    12.470
N1136357 ........... 3       7.3053 /_   79.7    1.0147    12.470
M1047513 ........... 1       6.5796 /_  -42.1   0.91388    12.470        1-2     11.597 /_  -12.3   0.92997
   -                 2       6.7342 /_ -163.3   0.93537    12.470        2-3     11.854 /_ -131.2   0.95062
   -                 3       7.1128 /_   79.0   0.98796    12.470        3-1     11.927 /_  107.2   0.95645
M1047507 ........... 1       6.5677 /_  -42.2   0.91224    12.470        1-2     11.578 /_  -12.3   0.92847
   -                 2       6.7254 /_ -163.3   0.93414    12.470        2-3     11.837 /_ -131.2   0.94925
   -                 3       7.1014 /_   79.0   0.98637    12.470        3-1     11.907 /_  107.1   0.95486
M1142863 ........... 1       7.2452 /_  -37.3    1.0063    12.470        1-2     12.536 /_   -7.4    1.0053
   -                 2       7.2229 /_ -157.4    1.0032    12.470        2-3     12.641 /_ -127.2    1.0137
   -                 3        7.355 /_   82.3    1.0216    12.470        3-1     12.622 /_  112.3    1.0122
N1141480 ........... 3        7.355 /_   82.3    1.0216    12.470
M1125916 ........... 2       7.2036 /_ -157.4    1.0006    12.470
...